
  -INDIGO-05252216332D

 23 22  0  0  0  0  0  0  0  0999 V2000
    4.5981    0.2315    0.0000 N   0  0  0  0  0  0  0  0  0  0  0  0
    4.2881   -0.3054    0.0000 H   0  0  0  0  0  0  0  0  0  0  0  0
    4.9081    0.7685    0.0000 H   0  0  0  0  0  0  0  0  0  0  0  0
    5.4641   -0.2685    0.0000 C   0  0  0  0  0  0  0  0  0  0  0  0
    5.8626   -0.7434    0.0000 H   0  0  0  0  0  0  0  0  0  0  0  0
    5.0656   -0.7434    0.0000 H   0  0  0  0  0  0  0  0  0  0  0  0
    6.3301    0.2315    0.0000 C   0  0  0  0  0  0  0  0  0  0  0  0
    6.0201    0.7685    0.0000 H   0  0  0  0  0  0  0  0  0  0  0  0
    6.8671    0.5415    0.0000 H   0  0  0  0  0  0  0  0  0  0  0  0
    6.6401   -0.3054    0.0000 H   0  0  0  0  0  0  0  0  0  0  0  0
    3.7320    0.7315    0.0000 C   0  0  0  0  0  0  0  0  0  0  0  0
    3.3335    1.2065    0.0000 H   0  0  0  0  0  0  0  0  0  0  0  0
    4.1306    1.2065    0.0000 H   0  0  0  0  0  0  0  0  0  0  0  0
    2.8660    0.2315    0.0000 C   0  0  0  0  0  0  0  0  0  0  0  0
    2.8660    0.8515    0.0000 H   0  0  0  0  0  0  0  0  0  0  0  0
    2.8660   -0.7685    0.0000 C   0  0  0  0  0  0  0  0  0  0  0  0
    3.4860   -0.7685    0.0000 H   0  0  0  0  0  0  0  0  0  0  0  0
    2.8660   -1.3885    0.0000 H   0  0  0  0  0  0  0  0  0  0  0  0
    2.2460   -0.7685    0.0000 H   0  0  0  0  0  0  0  0  0  0  0  0
    2.0000    0.7315    0.0000 C   0  0  0  0  0  0  0  0  0  0  0  0
    1.6900    0.1946    0.0000 H   0  0  0  0  0  0  0  0  0  0  0  0
    1.4631    1.0415    0.0000 H   0  0  0  0  0  0  0  0  0  0  0  0
    2.3100    1.2685    0.0000 H   0  0  0  0  0  0  0  0  0  0  0  0
  1  2  1  0  0  0  0
  1  3  1  0  0  0  0
  1  4  1  0  0  0  0
  4  5  1  0  0  0  0
  4  6  1  0  0  0  0
  4  7  1  0  0  0  0
  7  8  1  0  0  0  0
  7  9  1  0  0  0  0
  7 10  1  0  0  0  0
  1 11  1  0  0  0  0
 11 12  1  0  0  0  0
 11 13  1  0  0  0  0
 11 14  1  0  0  0  0
 14 15  1  0  0  0  0
 14 16  1  0  0  0  0
 16 17  1  0  0  0  0
 16 18  1  0  0  0  0
 16 19  1  0  0  0  0
 14 20  1  0  0  0  0
 20 21  1  0  0  0  0
 20 22  1  0  0  0  0
 20 23  1  0  0  0  0
M  CHG  1   1   1
M  END
>  <PUBCHEM_ATOM_DEF_STEREO_COUNT>
0

>  <PUBCHEM_ATOM_UDEF_STEREO_COUNT>
0

>  <PUBCHEM_BOND_DEF_STEREO_COUNT>
0

>  <PUBCHEM_BOND_UDEF_STEREO_COUNT>
0

>  <PUBCHEM_CACTVS_COMPLEXITY>
33.2

>  <PUBCHEM_CACTVS_HBOND_ACCEPTOR>
0

>  <PUBCHEM_CACTVS_HBOND_DONOR>
1

>  <PUBCHEM_CACTVS_ROTATABLE_BOND>
3

>  <PUBCHEM_CACTVS_SUBSKEYS>
AAADceBiAAAAAAAAAAAAAAAAAAAAAAAAAAAAAAAAAAAAAAAAAAAAHAAQAAAADQDBAAQCAALAAAAAAAAAAAAAAAAAAAAAAIAIAAAAAAAAAAAEAAAAEACAAAAAAAAAAAAAAAAAAAAAAAAAAAAAAAAAAAAAAA==

>  <PUBCHEM_CACTVS_TAUTO_COUNT>
-1

>  <PUBCHEM_CACTVS_TPSA>
16.6

>  <PUBCHEM_COMPONENT_COUNT>
1

>  <PUBCHEM_COMPOUND_CANONICALIZED>
1

>  <PUBCHEM_COMPOUND_CID>
26176693

>  <PUBCHEM_COORDINATE_TYPE>
1
5
255

>  <PUBCHEM_EXACT_MASS>
102.128274515

>  <PUBCHEM_HEAVY_ATOM_COUNT>
7

>  <PUBCHEM_ISOTOPIC_ATOM_COUNT>
0

>  <PUBCHEM_IUPAC_CAS_NAME>
ethyl(2-methylpropyl)ammonium

>  <PUBCHEM_IUPAC_INCHI>
InChI=1S/C6H15N/c1-4-7-5-6(2)3/h6-7H,4-5H2,1-3H3/p+1

>  <PUBCHEM_IUPAC_INCHIKEY>
FNLUJDLKYOWMMF-UHFFFAOYSA-O

>  <PUBCHEM_IUPAC_NAME>
ethyl(2-methylpropyl)azanium

>  <PUBCHEM_IUPAC_NAME_MARKUP>
ethyl(2-methylpropyl)azanium

>  <PUBCHEM_IUPAC_OPENEYE_NAME>
ethyl(isobutyl)ammonium

>  <PUBCHEM_IUPAC_SYSTEMATIC_NAME>
ethyl(2-methylpropyl)azanium

>  <PUBCHEM_IUPAC_TRADITIONAL_NAME>
ethyl(isobutyl)ammonium

>  <PUBCHEM_MOLECULAR_FORMULA>
C6H16N+

>  <PUBCHEM_MOLECULAR_WEIGHT>
102.20

>  <PUBCHEM_MONOISOTOPIC_WEIGHT>
102.128274515

>  <PUBCHEM_OPENEYE_CAN_SMILES>
CC[NH2+]CC(C)C

>  <PUBCHEM_OPENEYE_ISO_SMILES>
CC[NH2+]CC(C)C

>  <PUBCHEM_TOTAL_CHARGE>
1

>  <PUBCHEM_XLOGP3_AA>
1.5

$$$$

  -INDIGO-05252216332D

 22 21  0  0  1  0  0  0  0  0999 V2000
    2.8660    0.4400    0.0000 N   0  0  0  0  0  0  0  0  0  0  0  0
    2.8660    1.0600    0.0000 H   0  0  0  0  0  0  0  0  0  0  0  0
    2.0000   -0.0600    0.0000 C   0  0  0  0  0  0  0  0  0  0  0  0
    2.3100   -0.5969    0.0000 H   0  0  0  0  0  0  0  0  0  0  0  0
    1.4631   -0.3700    0.0000 H   0  0  0  0  0  0  0  0  0  0  0  0
    1.6900    0.4769    0.0000 H   0  0  0  0  0  0  0  0  0  0  0  0
    3.7320   -0.0600    0.0000 C   0  0  2  0  0  0  0  0  0  0  0  0
    3.7320    0.5600    0.0000 H   0  0  0  0  0  0  0  0  0  0  0  0
    3.7320   -1.0600    0.0000 C   0  0  0  0  0  0  0  0  0  0  0  0
    4.3520   -1.0600    0.0000 H   0  0  0  0  0  0  0  0  0  0  0  0
    3.7320   -1.6800    0.0000 H   0  0  0  0  0  0  0  0  0  0  0  0
    3.1120   -1.0600    0.0000 H   0  0  0  0  0  0  0  0  0  0  0  0
    4.5981    0.4400    0.0000 C   0  0  0  0  0  0  0  0  0  0  0  0
    4.1996    0.9149    0.0000 H   0  0  0  0  0  0  0  0  0  0  0  0
    4.9966    0.9149    0.0000 H   0  0  0  0  0  0  0  0  0  0  0  0
    5.4641   -0.0600    0.0000 C   0  0  0  0  0  0  0  0  0  0  0  0
    5.8626   -0.5349    0.0000 H   0  0  0  0  0  0  0  0  0  0  0  0
    5.0656   -0.5349    0.0000 H   0  0  0  0  0  0  0  0  0  0  0  0
    6.3301    0.4400    0.0000 C   0  0  0  0  0  0  0  0  0  0  0  0
    6.0201    0.9769    0.0000 H   0  0  0  0  0  0  0  0  0  0  0  0
    6.8671    0.7500    0.0000 H   0  0  0  0  0  0  0  0  0  0  0  0
    6.6401   -0.0969    0.0000 H   0  0  0  0  0  0  0  0  0  0  0  0
  1  2  1  0  0  0  0
  1  3  1  0  0  0  0
  3  4  1  0  0  0  0
  3  5  1  0  0  0  0
  3  6  1  0  0  0  0
  7  1  1  1  0  0  0
  7  8  1  0  0  0  0
  7  9  1  0  0  0  0
  9 10  1  0  0  0  0
  9 11  1  0  0  0  0
  9 12  1  0  0  0  0
  7 13  1  0  0  0  0
 13 14  1  0  0  0  0
 13 15  1  0  0  0  0
 13 16  1  0  0  0  0
 16 17  1  0  0  0  0
 16 18  1  0  0  0  0
 16 19  1  0  0  0  0
 19 20  1  0  0  0  0
 19 21  1  0  0  0  0
 19 22  1  0  0  0  0
M  END
>  <PUBCHEM_ATOM_DEF_STEREO_COUNT>
1

>  <PUBCHEM_ATOM_UDEF_STEREO_COUNT>
0

>  <PUBCHEM_BONDANNOTATIONS>
2  1  5

>  <PUBCHEM_BOND_DEF_STEREO_COUNT>
0

>  <PUBCHEM_BOND_UDEF_STEREO_COUNT>
0

>  <PUBCHEM_CACTVS_COMPLEXITY>
35.2

>  <PUBCHEM_CACTVS_HBOND_ACCEPTOR>
1

>  <PUBCHEM_CACTVS_HBOND_DONOR>
1

>  <PUBCHEM_CACTVS_ROTATABLE_BOND>
3

>  <PUBCHEM_CACTVS_SUBSKEYS>
AAADccBiAAAAAAAAAAAAAAAAAAAAAAAAAAAAAAAAAAAAAAAAAAAAHAAQAAAACCjBAAQCAALAAAAAAAAAAAAAAAAAAAAAAIAIAAAAAAIAgAAEAAAAEAAAAAAAAAAAAAAAAAAAAAAAAAAAAAAAAAAAAAAAAA==

>  <PUBCHEM_CACTVS_TAUTO_COUNT>
-1

>  <PUBCHEM_CACTVS_TPSA>
12

>  <PUBCHEM_COMPONENT_COUNT>
1

>  <PUBCHEM_COMPOUND_CANONICALIZED>
1

>  <PUBCHEM_COMPOUND_CID>
26188443

>  <PUBCHEM_COORDINATE_TYPE>
1
5
255

>  <PUBCHEM_EXACT_MASS>
101.120449483

>  <PUBCHEM_HEAVY_ATOM_COUNT>
7

>  <PUBCHEM_ISOTOPIC_ATOM_COUNT>
0

>  <PUBCHEM_IUPAC_CAS_NAME>
(2R)-N-methyl-2-pentanamine

>  <PUBCHEM_IUPAC_INCHI>
InChI=1S/C6H15N/c1-4-5-6(2)7-3/h6-7H,4-5H2,1-3H3/t6-/m1/s1

>  <PUBCHEM_IUPAC_INCHIKEY>
IPBXLJFBVNLKFE-ZCFIWIBFSA-N

>  <PUBCHEM_IUPAC_NAME>
(2R)-N-methylpentan-2-amine

>  <PUBCHEM_IUPAC_NAME_MARKUP>
(2<I>R</I>)-<I>N</I>-methylpentan-2-amine

>  <PUBCHEM_IUPAC_OPENEYE_NAME>
(2R)-N-methylpentan-2-amine

>  <PUBCHEM_IUPAC_SYSTEMATIC_NAME>
(2R)-N-methylpentan-2-amine

>  <PUBCHEM_IUPAC_TRADITIONAL_NAME>
methyl-[(1R)-1-methylbutyl]amine

>  <PUBCHEM_MOLECULAR_FORMULA>
C6H15N

>  <PUBCHEM_MOLECULAR_WEIGHT>
101.19

>  <PUBCHEM_MONOISOTOPIC_WEIGHT>
101.120449483

>  <PUBCHEM_OPENEYE_CAN_SMILES>
CCCC(C)NC

>  <PUBCHEM_OPENEYE_ISO_SMILES>
CCC[C@@H](C)NC

>  <PUBCHEM_TOTAL_CHARGE>
0

>  <PUBCHEM_XLOGP3_AA>
1.5

$$$$

  -INDIGO-05252216332D

 10 10  0  0  1  0  0  0  0  0999 V2000
    2.0000   -0.4907    0.0000 F   0  0  0  0  0  0  0  0  0  0  0  0
    2.9511   -0.1816    0.0000 C   0  0  2  0  0  0  0  0  0  0  0  0
    2.5126    0.2568    0.0000 H   0  0  0  0  0  0  0  0  0  0  0  0
    3.2601    0.7694    0.0000 C   0  0  0  0  0  0  0  0  0  0  0  0
    2.6536    0.8983    0.0000 H   0  0  0  0  0  0  0  0  0  0  0  0
    3.3249    1.3860    0.0000 H   0  0  0  0  0  0  0  0  0  0  0  0
    4.2601    0.7694    0.0000 O   0  0  0  0  0  0  0  0  0  0  0  0
    4.5691   -0.1816    0.0000 C   0  0  0  0  0  0  0  0  0  0  0  0
    5.5202   -0.4907    0.0000 O   0  0  0  0  0  0  0  0  0  0  0  0
    3.7601   -0.7694    0.0000 O   0  0  0  0  0  0  0  0  0  0  0  0
  2  1  1  6  0  0  0
  2  3  1  0  0  0  0
  2  4  1  0  0  0  0
  4  5  1  0  0  0  0
  4  6  1  0  0  0  0
  4  7  1  0  0  0  0
  7  8  1  0  0  0  0
  8  9  2  0  0  0  0
  8 10  1  0  0  0  0
 10  2  1  0  0  0  0
M  END
>  <PUBCHEM_ATOM_DEF_STEREO_COUNT>
1

>  <PUBCHEM_ATOM_UDEF_STEREO_COUNT>
0

>  <PUBCHEM_BONDANNOTATIONS>
5  1  6

>  <PUBCHEM_BOND_DEF_STEREO_COUNT>
0

>  <PUBCHEM_BOND_UDEF_STEREO_COUNT>
0

>  <PUBCHEM_CACTVS_COMPLEXITY>
92.2

>  <PUBCHEM_CACTVS_HBOND_ACCEPTOR>
4

>  <PUBCHEM_CACTVS_HBOND_DONOR>
0

>  <PUBCHEM_CACTVS_ROTATABLE_BOND>
0

>  <PUBCHEM_CACTVS_SUBSKEYS>
AAADcQBAMQAAAAAAAAAAAAAAAAAAASAAAAAAAAAAAAAAAAAAAAAAGwAAAAAAAACggAIACAAABAAIAAAACAAAAAAAAAAAAAAAAAARAAAAAAAgAAAAAAAGAAAAAAAAAAAAAAAAAAAAAAAAAAAAAAAAAAAAAA==

>  <PUBCHEM_CACTVS_TAUTO_COUNT>
-1

>  <PUBCHEM_CACTVS_TPSA>
35.5

>  <PUBCHEM_COMPONENT_COUNT>
1

>  <PUBCHEM_COMPOUND_CANONICALIZED>
1

>  <PUBCHEM_COMPOUND_CID>
26188538

>  <PUBCHEM_COORDINATE_TYPE>
1
5
255

>  <PUBCHEM_EXACT_MASS>
106.00662212

>  <PUBCHEM_HEAVY_ATOM_COUNT>
7

>  <PUBCHEM_ISOTOPIC_ATOM_COUNT>
0

>  <PUBCHEM_IUPAC_CAS_NAME>
(4R)-4-fluoro-1,3-dioxolan-2-one

>  <PUBCHEM_IUPAC_INCHI>
InChI=1S/C3H3FO3/c4-2-1-6-3(5)7-2/h2H,1H2/t2-/m0/s1

>  <PUBCHEM_IUPAC_INCHIKEY>
SBLRHMKNNHXPHG-REOHCLBHSA-N

>  <PUBCHEM_IUPAC_NAME>
(4R)-4-fluoro-1,3-dioxolan-2-one

>  <PUBCHEM_IUPAC_NAME_MARKUP>
(4<I>R</I>)-4-fluoro-1,3-dioxolan-2-one

>  <PUBCHEM_IUPAC_OPENEYE_NAME>
(4R)-4-fluoro-1,3-dioxolan-2-one

>  <PUBCHEM_IUPAC_SYSTEMATIC_NAME>
(4R)-4-fluoranyl-1,3-dioxolan-2-one

>  <PUBCHEM_IUPAC_TRADITIONAL_NAME>
(4R)-4-fluoro-1,3-dioxolan-2-one

>  <PUBCHEM_MOLECULAR_FORMULA>
C3H3FO3

>  <PUBCHEM_MOLECULAR_WEIGHT>
106.05

>  <PUBCHEM_MONOISOTOPIC_WEIGHT>
106.00662212

>  <PUBCHEM_OPENEYE_CAN_SMILES>
C1C(OC(=O)O1)F

>  <PUBCHEM_OPENEYE_ISO_SMILES>
C1[C@H](OC(=O)O1)F

>  <PUBCHEM_TOTAL_CHARGE>
0

>  <PUBCHEM_XLOGP3>
-0.3

$$$$

  -INDIGO-05252216332D

 21 20  0  0  0  0  0  0  0  0999 V2000
    5.4641    0.5000    0.0000 O   0  0  0  0  0  0  0  0  0  0  0  0
    6.3301    0.0000    0.0000 C   0  0  0  0  0  0  0  0  0  0  0  0
    6.7287   -0.4749    0.0000 H   0  0  0  0  0  0  0  0  0  0  0  0
    5.9316   -0.4749    0.0000 H   0  0  0  0  0  0  0  0  0  0  0  0
    7.1962    0.5000    0.0000 C   0  0  0  0  0  0  0  0  0  0  0  0
    6.8862    1.0369    0.0000 H   0  0  0  0  0  0  0  0  0  0  0  0
    7.7331    0.8100    0.0000 H   0  0  0  0  0  0  0  0  0  0  0  0
    7.5062   -0.0369    0.0000 H   0  0  0  0  0  0  0  0  0  0  0  0
    4.5981    0.0000    0.0000 C   0  0  0  0  0  0  0  0  0  0  0  0
    4.9966   -0.4749    0.0000 H   0  0  0  0  0  0  0  0  0  0  0  0
    4.1996   -0.4749    0.0000 H   0  0  0  0  0  0  0  0  0  0  0  0
    3.7320    0.5000    0.0000 C   0  0  0  0  0  0  0  0  0  0  0  0
    3.3335    0.9749    0.0000 H   0  0  0  0  0  0  0  0  0  0  0  0
    4.1306    0.9749    0.0000 H   0  0  0  0  0  0  0  0  0  0  0  0
    2.8660    0.0000    0.0000 N   0  0  0  0  0  0  0  0  0  0  0  0
    3.1760   -0.5369    0.0000 H   0  0  0  0  0  0  0  0  0  0  0  0
    2.5560    0.5369    0.0000 H   0  0  0  0  0  0  0  0  0  0  0  0
    2.0000   -0.5000    0.0000 C   0  0  0  0  0  0  0  0  0  0  0  0
    2.3100   -1.0369    0.0000 H   0  0  0  0  0  0  0  0  0  0  0  0
    1.4631   -0.8100    0.0000 H   0  0  0  0  0  0  0  0  0  0  0  0
    1.6900    0.0369    0.0000 H   0  0  0  0  0  0  0  0  0  0  0  0
  1  2  1  0  0  0  0
  2  3  1  0  0  0  0
  2  4  1  0  0  0  0
  2  5  1  0  0  0  0
  5  6  1  0  0  0  0
  5  7  1  0  0  0  0
  5  8  1  0  0  0  0
  1  9  1  0  0  0  0
  9 10  1  0  0  0  0
  9 11  1  0  0  0  0
  9 12  1  0  0  0  0
 12 13  1  0  0  0  0
 12 14  1  0  0  0  0
 12 15  1  0  0  0  0
 15 16  1  0  0  0  0
 15 17  1  0  0  0  0
 15 18  1  0  0  0  0
 18 19  1  0  0  0  0
 18 20  1  0  0  0  0
 18 21  1  0  0  0  0
M  CHG  1  15   1
M  END
>  <PUBCHEM_ATOM_DEF_STEREO_COUNT>
0

>  <PUBCHEM_ATOM_UDEF_STEREO_COUNT>
0

>  <PUBCHEM_BOND_DEF_STEREO_COUNT>
0

>  <PUBCHEM_BOND_UDEF_STEREO_COUNT>
0

>  <PUBCHEM_CACTVS_COMPLEXITY>
31.3

>  <PUBCHEM_CACTVS_HBOND_ACCEPTOR>
1

>  <PUBCHEM_CACTVS_HBOND_DONOR>
1

>  <PUBCHEM_CACTVS_ROTATABLE_BOND>
4

>  <PUBCHEM_CACTVS_SUBSKEYS>
AAADccBiIAAAAAAAAAAAAAAAAAAAAAAAAAAAAAAAAAAAAAAAAAAAHgAQAAAAAADhgAYCAALABAAAAAAAAAAAAAAAAAAAAIAIAAACAAAAAAADAAAAEAAQAAAAAAAAAAAAAAAAAAAAAAAAAAAAAAAAAAAAAA==

>  <PUBCHEM_CACTVS_TAUTO_COUNT>
-1

>  <PUBCHEM_CACTVS_TPSA>
25.8

>  <PUBCHEM_COMPONENT_COUNT>
1

>  <PUBCHEM_COMPOUND_CANONICALIZED>
1

>  <PUBCHEM_COMPOUND_CID>
26188664

>  <PUBCHEM_COORDINATE_TYPE>
1
5
255

>  <PUBCHEM_EXACT_MASS>
104.107539070

>  <PUBCHEM_HEAVY_ATOM_COUNT>
7

>  <PUBCHEM_ISOTOPIC_ATOM_COUNT>
0

>  <PUBCHEM_IUPAC_CAS_NAME>
2-ethoxyethyl(methyl)ammonium

>  <PUBCHEM_IUPAC_INCHI>
InChI=1S/C5H13NO/c1-3-7-5-4-6-2/h6H,3-5H2,1-2H3/p+1

>  <PUBCHEM_IUPAC_INCHIKEY>
QWEJWXUAXUMVFU-UHFFFAOYSA-O

>  <PUBCHEM_IUPAC_NAME>
2-ethoxyethyl(methyl)azanium

>  <PUBCHEM_IUPAC_NAME_MARKUP>
2-ethoxyethyl(methyl)azanium

>  <PUBCHEM_IUPAC_OPENEYE_NAME>
2-ethoxyethyl(methyl)ammonium

>  <PUBCHEM_IUPAC_SYSTEMATIC_NAME>
2-ethoxyethyl(methyl)azanium

>  <PUBCHEM_IUPAC_TRADITIONAL_NAME>
2-ethoxyethyl(methyl)ammonium

>  <PUBCHEM_MOLECULAR_FORMULA>
C5H14NO+

>  <PUBCHEM_MOLECULAR_WEIGHT>
104.17

>  <PUBCHEM_MONOISOTOPIC_WEIGHT>
104.107539070

>  <PUBCHEM_OPENEYE_CAN_SMILES>
CCOCC[NH2+]C

>  <PUBCHEM_OPENEYE_ISO_SMILES>
CCOCC[NH2+]C

>  <PUBCHEM_TOTAL_CHARGE>
1

>  <PUBCHEM_XLOGP3_AA>
0

$$$$

  -INDIGO-05252216332D

 18 18  0  0  0  0  0  0  0  0999 V2000
    4.0000    0.0000    0.0000 N   0  0  0  0  0  0  0  0  0  0  0  0
    4.0000   -0.6200    0.0000 H   0  0  0  0  0  0  0  0  0  0  0  0
    4.0000    0.6200    0.0000 H   0  0  0  0  0  0  0  0  0  0  0  0
    4.6200    0.0000    0.0000 H   0  0  0  0  0  0  0  0  0  0  0  0
    3.0000    0.0000    0.0000 C   0  0  0  0  0  0  0  0  0  0  0  0
    3.0000    1.0000    0.0000 C   0  0  0  0  0  0  0  0  0  0  0  0
    2.3800    1.0000    0.0000 H   0  0  0  0  0  0  0  0  0  0  0  0
    3.0000    1.6200    0.0000 H   0  0  0  0  0  0  0  0  0  0  0  0
    3.6200    1.0000    0.0000 H   0  0  0  0  0  0  0  0  0  0  0  0
    2.0000    0.0000    0.0000 C   0  0  0  0  0  0  0  0  0  0  0  0
    1.3800    0.0000    0.0000 H   0  0  0  0  0  0  0  0  0  0  0  0
    2.0000    0.6200    0.0000 H   0  0  0  0  0  0  0  0  0  0  0  0
    2.0000   -1.0000    0.0000 C   0  0  0  0  0  0  0  0  0  0  0  0
    2.0000   -1.6200    0.0000 H   0  0  0  0  0  0  0  0  0  0  0  0
    1.3800   -1.0000    0.0000 H   0  0  0  0  0  0  0  0  0  0  0  0
    3.0000   -1.0000    0.0000 C   0  0  0  0  0  0  0  0  0  0  0  0
    3.6200   -1.0000    0.0000 H   0  0  0  0  0  0  0  0  0  0  0  0
    3.0000   -1.6200    0.0000 H   0  0  0  0  0  0  0  0  0  0  0  0
  1  2  1  0  0  0  0
  1  3  1  0  0  0  0
  1  4  1  0  0  0  0
  1  5  1  0  0  0  0
  5  6  1  0  0  0  0
  6  7  1  0  0  0  0
  6  8  1  0  0  0  0
  6  9  1  0  0  0  0
  5 10  1  0  0  0  0
 10 11  1  0  0  0  0
 10 12  1  0  0  0  0
 10 13  1  0  0  0  0
 13 14  1  0  0  0  0
 13 15  1  0  0  0  0
 13 16  1  0  0  0  0
 16  5  1  0  0  0  0
 16 17  1  0  0  0  0
 16 18  1  0  0  0  0
M  CHG  1   1   1
M  END
>  <PUBCHEM_ATOM_DEF_STEREO_COUNT>
0

>  <PUBCHEM_ATOM_UDEF_STEREO_COUNT>
0

>  <PUBCHEM_BOND_DEF_STEREO_COUNT>
0

>  <PUBCHEM_BOND_UDEF_STEREO_COUNT>
0

>  <PUBCHEM_CACTVS_COMPLEXITY>
55

>  <PUBCHEM_CACTVS_HBOND_ACCEPTOR>
0

>  <PUBCHEM_CACTVS_HBOND_DONOR>
1

>  <PUBCHEM_CACTVS_ROTATABLE_BOND>
0

>  <PUBCHEM_CACTVS_SUBSKEYS>
AAADccBiAAAAAAAAAAAAAAAAAABgAAAAAAAAAAAAAAAAAAAAAAAAHAAQAAAADIiBAAACAABAAAAAAAAAAAAAAAAAAAAAAAAAAAAAAAIAgAAAAAAAEAAAAAAAAAAIAAAAAAAAAAAAAAAAAAAAAAAAAAAAAA==

>  <PUBCHEM_CACTVS_TAUTO_COUNT>
-1

>  <PUBCHEM_CACTVS_TPSA>
27.6

>  <PUBCHEM_COMPONENT_COUNT>
1

>  <PUBCHEM_COMPOUND_CANONICALIZED>
1

>  <PUBCHEM_COMPOUND_CID>
26188890

>  <PUBCHEM_COORDINATE_TYPE>
1
5
255

>  <PUBCHEM_EXACT_MASS>
86.096974387

>  <PUBCHEM_HEAVY_ATOM_COUNT>
6

>  <PUBCHEM_ISOTOPIC_ATOM_COUNT>
0

>  <PUBCHEM_IUPAC_CAS_NAME>
(1-methylcyclobutyl)ammonium

>  <PUBCHEM_IUPAC_INCHI>
InChI=1S/C5H11N/c1-5(6)3-2-4-5/h2-4,6H2,1H3/p+1

>  <PUBCHEM_IUPAC_INCHIKEY>
ZAXBVBGWLMVNJN-UHFFFAOYSA-O

>  <PUBCHEM_IUPAC_NAME>
(1-methylcyclobutyl)azanium

>  <PUBCHEM_IUPAC_NAME_MARKUP>
(1-methylcyclobutyl)azanium

>  <PUBCHEM_IUPAC_OPENEYE_NAME>
(1-methylcyclobutyl)ammonium

>  <PUBCHEM_IUPAC_SYSTEMATIC_NAME>
(1-methylcyclobutyl)azanium

>  <PUBCHEM_IUPAC_TRADITIONAL_NAME>
(1-methylcyclobutyl)ammonium

>  <PUBCHEM_MOLECULAR_FORMULA>
C5H12N+

>  <PUBCHEM_MOLECULAR_WEIGHT>
86.16

>  <PUBCHEM_MONOISOTOPIC_WEIGHT>
86.096974387

>  <PUBCHEM_OPENEYE_CAN_SMILES>
CC1(CCC1)[NH3+]

>  <PUBCHEM_OPENEYE_ISO_SMILES>
CC1(CCC1)[NH3+]

>  <PUBCHEM_TOTAL_CHARGE>
1

>  <PUBCHEM_XLOGP3_AA>
0.4

$$$$

  -INDIGO-05252216332D

 18 18  0  0  1  0  0  0  0  0999 V2000
    2.0000    1.0272    0.0000 O   0  0  0  0  0  0  0  0  0  0  0  0
    2.4067    1.9407    0.0000 C   0  0  0  0  0  0  0  0  0  0  0  0
    1.8403    2.1929    0.0000 H   0  0  0  0  0  0  0  0  0  0  0  0
    2.6589    2.5071    0.0000 H   0  0  0  0  0  0  0  0  0  0  0  0
    2.9731    1.6885    0.0000 H   0  0  0  0  0  0  0  0  0  0  0  0
    2.5878    0.2181    0.0000 C   0  0  2  0  0  0  0  0  0  0  0  0
    1.9754    0.1212    0.0000 H   0  0  0  0  0  0  0  0  0  0  0  0
    2.2788   -0.7329    0.0000 C   0  0  0  0  0  0  0  0  0  0  0  0
    1.9688   -1.2698    0.0000 H   0  0  0  0  0  0  0  0  0  0  0  0
    1.7124   -0.4807    0.0000 H   0  0  0  0  0  0  0  0  0  0  0  0
    3.0878   -1.3207    0.0000 N   0  0  0  0  0  0  0  0  0  0  0  0
    3.0878   -1.9407    0.0000 H   0  0  0  0  0  0  0  0  0  0  0  0
    3.8968   -0.7329    0.0000 C   0  0  0  0  0  0  0  0  0  0  0  0
    4.4632   -0.4807    0.0000 H   0  0  0  0  0  0  0  0  0  0  0  0
    4.2068   -1.2698    0.0000 H   0  0  0  0  0  0  0  0  0  0  0  0
    3.5878    0.2181    0.0000 C   0  0  0  0  0  0  0  0  0  0  0  0
    3.5230    0.8347    0.0000 H   0  0  0  0  0  0  0  0  0  0  0  0
    4.1942    0.3470    0.0000 H   0  0  0  0  0  0  0  0  0  0  0  0
  1  2  1  0  0  0  0
  2  3  1  0  0  0  0
  2  4  1  0  0  0  0
  2  5  1  0  0  0  0
  6  1  1  1  0  0  0
  6  7  1  0  0  0  0
  6  8  1  0  0  0  0
  8  9  1  0  0  0  0
  8 10  1  0  0  0  0
  8 11  1  0  0  0  0
 11 12  1  0  0  0  0
 11 13  1  0  0  0  0
 13 14  1  0  0  0  0
 13 15  1  0  0  0  0
 13 16  1  0  0  0  0
 16  6  1  0  0  0  0
 16 17  1  0  0  0  0
 16 18  1  0  0  0  0
M  END
>  <PUBCHEM_ATOM_DEF_STEREO_COUNT>
1

>  <PUBCHEM_ATOM_UDEF_STEREO_COUNT>
0

>  <PUBCHEM_BONDANNOTATIONS>
3  1  5

>  <PUBCHEM_BOND_DEF_STEREO_COUNT>
0

>  <PUBCHEM_BOND_UDEF_STEREO_COUNT>
0

>  <PUBCHEM_CACTVS_COMPLEXITY>
56

>  <PUBCHEM_CACTVS_HBOND_ACCEPTOR>
2

>  <PUBCHEM_CACTVS_HBOND_DONOR>
1

>  <PUBCHEM_CACTVS_ROTATABLE_BOND>
1

>  <PUBCHEM_CACTVS_SUBSKEYS>
AAADccBiIAAAAAAAAAAAAAAAAAAAAWAAAAAAAAAAAAAAAAAAAAAAHgAQAAAACBThgAYCAALABAAAAAAAAAAAAAAAAAAAAIAIAAACAAAAgAAFAAACEACQAAAAAAAAAAAAAAAAAAAAAAAAAAAAAAAAAAAAAA==

>  <PUBCHEM_CACTVS_TAUTO_COUNT>
1

>  <PUBCHEM_CACTVS_TPSA>
21.3

>  <PUBCHEM_COMPONENT_COUNT>
1

>  <PUBCHEM_COMPOUND_CANONICALIZED>
1

>  <PUBCHEM_COMPOUND_CID>
26191850

>  <PUBCHEM_COORDINATE_TYPE>
1
5
255

>  <PUBCHEM_EXACT_MASS>
101.084063974

>  <PUBCHEM_HEAVY_ATOM_COUNT>
7

>  <PUBCHEM_ISOTOPIC_ATOM_COUNT>
0

>  <PUBCHEM_IUPAC_CAS_NAME>
(3S)-3-methoxypyrrolidine

>  <PUBCHEM_IUPAC_INCHI>
InChI=1S/C5H11NO/c1-7-5-2-3-6-4-5/h5-6H,2-4H2,1H3/t5-/m0/s1

>  <PUBCHEM_IUPAC_INCHIKEY>
BWRWNUQAQPAYCK-YFKPBYRVSA-N

>  <PUBCHEM_IUPAC_NAME>
(3S)-3-methoxypyrrolidine

>  <PUBCHEM_IUPAC_NAME_MARKUP>
(3<I>S</I>)-3-methoxypyrrolidine

>  <PUBCHEM_IUPAC_OPENEYE_NAME>
(3S)-3-methoxypyrrolidine

>  <PUBCHEM_IUPAC_SYSTEMATIC_NAME>
(3S)-3-methoxypyrrolidine

>  <PUBCHEM_IUPAC_TRADITIONAL_NAME>
(3S)-3-methoxypyrrolidine

>  <PUBCHEM_MOLECULAR_FORMULA>
C5H11NO

>  <PUBCHEM_MOLECULAR_WEIGHT>
101.15

>  <PUBCHEM_MONOISOTOPIC_WEIGHT>
101.084063974

>  <PUBCHEM_OPENEYE_CAN_SMILES>
COC1CCNC1

>  <PUBCHEM_OPENEYE_ISO_SMILES>
CO[C@H]1CCNC1

>  <PUBCHEM_TOTAL_CHARGE>
0

>  <PUBCHEM_XLOGP3_AA>
-0.2

$$$$

  -INDIGO-05252216332D

 19 19  0  0  1  0  0  0  0  0999 V2000
    2.0000    0.9680    0.0000 O   0  0  0  0  0  0  0  0  0  0  0  0
    2.4067    1.8815    0.0000 C   0  0  0  0  0  0  0  0  0  0  0  0
    1.8403    2.1337    0.0000 H   0  0  0  0  0  0  0  0  0  0  0  0
    2.6589    2.4479    0.0000 H   0  0  0  0  0  0  0  0  0  0  0  0
    2.9731    1.6293    0.0000 H   0  0  0  0  0  0  0  0  0  0  0  0
    2.5878    0.1589    0.0000 C   0  0  2  0  0  0  0  0  0  0  0  0
    2.8693    0.7114    0.0000 H   0  0  0  0  0  0  0  0  0  0  0  0
    3.5878    0.1589    0.0000 C   0  0  0  0  0  0  0  0  0  0  0  0
    3.5230    0.7755    0.0000 H   0  0  0  0  0  0  0  0  0  0  0  0
    4.1942    0.2878    0.0000 H   0  0  0  0  0  0  0  0  0  0  0  0
    3.8968   -0.7921    0.0000 C   0  0  0  0  0  0  0  0  0  0  0  0
    4.4632   -0.5399    0.0000 H   0  0  0  0  0  0  0  0  0  0  0  0
    4.2068   -1.3291    0.0000 H   0  0  0  0  0  0  0  0  0  0  0  0
    3.0878   -1.3799    0.0000 N   0  0  0  0  0  0  0  0  0  0  0  0
    3.4522   -1.8815    0.0000 H   0  0  0  0  0  0  0  0  0  0  0  0
    2.7234   -1.8815    0.0000 H   0  0  0  0  0  0  0  0  0  0  0  0
    2.2788   -0.7921    0.0000 C   0  0  0  0  0  0  0  0  0  0  0  0
    1.9688   -1.3291    0.0000 H   0  0  0  0  0  0  0  0  0  0  0  0
    1.7124   -0.5399    0.0000 H   0  0  0  0  0  0  0  0  0  0  0  0
  1  2  1  0  0  0  0
  2  3  1  0  0  0  0
  2  4  1  0  0  0  0
  2  5  1  0  0  0  0
  6  1  1  6  0  0  0
  6  7  1  0  0  0  0
  6  8  1  0  0  0  0
  8  9  1  0  0  0  0
  8 10  1  0  0  0  0
  8 11  1  0  0  0  0
 11 12  1  0  0  0  0
 11 13  1  0  0  0  0
 11 14  1  0  0  0  0
 14 15  1  0  0  0  0
 14 16  1  0  0  0  0
 14 17  1  0  0  0  0
 17  6  1  0  0  0  0
 17 18  1  0  0  0  0
 17 19  1  0  0  0  0
M  CHG  1  14   1
M  END
>  <PUBCHEM_ATOM_DEF_STEREO_COUNT>
1

>  <PUBCHEM_ATOM_UDEF_STEREO_COUNT>
0

>  <PUBCHEM_BONDANNOTATIONS>
3  1  6

>  <PUBCHEM_BOND_DEF_STEREO_COUNT>
0

>  <PUBCHEM_BOND_UDEF_STEREO_COUNT>
0

>  <PUBCHEM_CACTVS_COMPLEXITY>
56

>  <PUBCHEM_CACTVS_HBOND_ACCEPTOR>
1

>  <PUBCHEM_CACTVS_HBOND_DONOR>
1

>  <PUBCHEM_CACTVS_ROTATABLE_BOND>
1

>  <PUBCHEM_CACTVS_SUBSKEYS>
AAADccBiIAAAAAAAAAAAAAAAAAAAAWAAAAAAAAAAAAAAAAAAAAAAHgAQAAAACBThgAYCAALABAAAAAAAAAAAAAAAAAAAAIAIAAACAAAAgAAFAAACEACQAAAAAAAAAAAAAAAAAAAAAAAAAAAAAAAAAAAAAA==

>  <PUBCHEM_CACTVS_TAUTO_COUNT>
-1

>  <PUBCHEM_CACTVS_TPSA>
25.8

>  <PUBCHEM_COMPONENT_COUNT>
1

>  <PUBCHEM_COMPOUND_CANONICALIZED>
1

>  <PUBCHEM_COMPOUND_CID>
26191847

>  <PUBCHEM_COORDINATE_TYPE>
1
5
255

>  <PUBCHEM_EXACT_MASS>
102.091889006

>  <PUBCHEM_HEAVY_ATOM_COUNT>
7

>  <PUBCHEM_ISOTOPIC_ATOM_COUNT>
0

>  <PUBCHEM_IUPAC_CAS_NAME>
(3R)-3-methoxypyrrolidin-1-ium

>  <PUBCHEM_IUPAC_INCHI>
InChI=1S/C5H11NO/c1-7-5-2-3-6-4-5/h5-6H,2-4H2,1H3/p+1/t5-/m1/s1

>  <PUBCHEM_IUPAC_INCHIKEY>
BWRWNUQAQPAYCK-RXMQYKEDSA-O

>  <PUBCHEM_IUPAC_NAME>
(3R)-3-methoxypyrrolidin-1-ium

>  <PUBCHEM_IUPAC_NAME_MARKUP>
(3<I>R</I>)-3-methoxypyrrolidin-1-ium

>  <PUBCHEM_IUPAC_OPENEYE_NAME>
(3R)-3-methoxypyrrolidin-1-ium

>  <PUBCHEM_IUPAC_SYSTEMATIC_NAME>
(3R)-3-methoxypyrrolidin-1-ium

>  <PUBCHEM_IUPAC_TRADITIONAL_NAME>
(3R)-3-methoxypyrrolidin-1-ium

>  <PUBCHEM_MOLECULAR_FORMULA>
C5H12NO+

>  <PUBCHEM_MOLECULAR_WEIGHT>
102.15

>  <PUBCHEM_MONOISOTOPIC_WEIGHT>
102.091889006

>  <PUBCHEM_OPENEYE_CAN_SMILES>
COC1CC[NH2+]C1

>  <PUBCHEM_OPENEYE_ISO_SMILES>
CO[C@@H]1CC[NH2+]C1

>  <PUBCHEM_TOTAL_CHARGE>
1

>  <PUBCHEM_XLOGP3_AA>
-0.2

$$$$

  -INDIGO-05252216332D

 19 19  0  0  1  0  0  0  0  0999 V2000
    2.0000    0.9680    0.0000 O   0  0  0  0  0  0  0  0  0  0  0  0
    2.4067    1.8815    0.0000 C   0  0  0  0  0  0  0  0  0  0  0  0
    1.8403    2.1337    0.0000 H   0  0  0  0  0  0  0  0  0  0  0  0
    2.6589    2.4479    0.0000 H   0  0  0  0  0  0  0  0  0  0  0  0
    2.9731    1.6293    0.0000 H   0  0  0  0  0  0  0  0  0  0  0  0
    2.5878    0.1589    0.0000 C   0  0  1  0  0  0  0  0  0  0  0  0
    2.8693    0.7114    0.0000 H   0  0  0  0  0  0  0  0  0  0  0  0
    3.5878    0.1589    0.0000 C   0  0  0  0  0  0  0  0  0  0  0  0
    3.5230    0.7755    0.0000 H   0  0  0  0  0  0  0  0  0  0  0  0
    4.1942    0.2878    0.0000 H   0  0  0  0  0  0  0  0  0  0  0  0
    3.8968   -0.7921    0.0000 C   0  0  0  0  0  0  0  0  0  0  0  0
    4.4632   -0.5399    0.0000 H   0  0  0  0  0  0  0  0  0  0  0  0
    4.2068   -1.3291    0.0000 H   0  0  0  0  0  0  0  0  0  0  0  0
    3.0878   -1.3799    0.0000 N   0  0  0  0  0  0  0  0  0  0  0  0
    3.4522   -1.8815    0.0000 H   0  0  0  0  0  0  0  0  0  0  0  0
    2.7234   -1.8815    0.0000 H   0  0  0  0  0  0  0  0  0  0  0  0
    2.2788   -0.7921    0.0000 C   0  0  0  0  0  0  0  0  0  0  0  0
    1.9688   -1.3291    0.0000 H   0  0  0  0  0  0  0  0  0  0  0  0
    1.7124   -0.5399    0.0000 H   0  0  0  0  0  0  0  0  0  0  0  0
  1  2  1  0  0  0  0
  2  3  1  0  0  0  0
  2  4  1  0  0  0  0
  2  5  1  0  0  0  0
  6  1  1  1  0  0  0
  6  7  1  0  0  0  0
  6  8  1  0  0  0  0
  8  9  1  0  0  0  0
  8 10  1  0  0  0  0
  8 11  1  0  0  0  0
 11 12  1  0  0  0  0
 11 13  1  0  0  0  0
 11 14  1  0  0  0  0
 14 15  1  0  0  0  0
 14 16  1  0  0  0  0
 14 17  1  0  0  0  0
 17  6  1  0  0  0  0
 17 18  1  0  0  0  0
 17 19  1  0  0  0  0
M  CHG  1  14   1
M  END
>  <PUBCHEM_ATOM_DEF_STEREO_COUNT>
1

>  <PUBCHEM_ATOM_UDEF_STEREO_COUNT>
0

>  <PUBCHEM_BONDANNOTATIONS>
3  1  5

>  <PUBCHEM_BOND_DEF_STEREO_COUNT>
0

>  <PUBCHEM_BOND_UDEF_STEREO_COUNT>
0

>  <PUBCHEM_CACTVS_COMPLEXITY>
56

>  <PUBCHEM_CACTVS_HBOND_ACCEPTOR>
1

>  <PUBCHEM_CACTVS_HBOND_DONOR>
1

>  <PUBCHEM_CACTVS_ROTATABLE_BOND>
1

>  <PUBCHEM_CACTVS_SUBSKEYS>
AAADccBiIAAAAAAAAAAAAAAAAAAAAWAAAAAAAAAAAAAAAAAAAAAAHgAQAAAACBThgAYCAALABAAAAAAAAAAAAAAAAAAAAIAIAAACAAAAgAAFAAACEACQAAAAAAAAAAAAAAAAAAAAAAAAAAAAAAAAAAAAAA==

>  <PUBCHEM_CACTVS_TAUTO_COUNT>
-1

>  <PUBCHEM_CACTVS_TPSA>
25.8

>  <PUBCHEM_COMPONENT_COUNT>
1

>  <PUBCHEM_COMPOUND_CANONICALIZED>
1

>  <PUBCHEM_COMPOUND_CID>
26191849

>  <PUBCHEM_COORDINATE_TYPE>
1
5
255

>  <PUBCHEM_EXACT_MASS>
102.091889006

>  <PUBCHEM_HEAVY_ATOM_COUNT>
7

>  <PUBCHEM_ISOTOPIC_ATOM_COUNT>
0

>  <PUBCHEM_IUPAC_CAS_NAME>
(3S)-3-methoxypyrrolidin-1-ium

>  <PUBCHEM_IUPAC_INCHI>
InChI=1S/C5H11NO/c1-7-5-2-3-6-4-5/h5-6H,2-4H2,1H3/p+1/t5-/m0/s1

>  <PUBCHEM_IUPAC_INCHIKEY>
BWRWNUQAQPAYCK-YFKPBYRVSA-O

>  <PUBCHEM_IUPAC_NAME>
(3S)-3-methoxypyrrolidin-1-ium

>  <PUBCHEM_IUPAC_NAME_MARKUP>
(3<I>S</I>)-3-methoxypyrrolidin-1-ium

>  <PUBCHEM_IUPAC_OPENEYE_NAME>
(3S)-3-methoxypyrrolidin-1-ium

>  <PUBCHEM_IUPAC_SYSTEMATIC_NAME>
(3S)-3-methoxypyrrolidin-1-ium

>  <PUBCHEM_IUPAC_TRADITIONAL_NAME>
(3S)-3-methoxypyrrolidin-1-ium

>  <PUBCHEM_MOLECULAR_FORMULA>
C5H12NO+

>  <PUBCHEM_MOLECULAR_WEIGHT>
102.15

>  <PUBCHEM_MONOISOTOPIC_WEIGHT>
102.091889006

>  <PUBCHEM_OPENEYE_CAN_SMILES>
COC1CC[NH2+]C1

>  <PUBCHEM_OPENEYE_ISO_SMILES>
CO[C@H]1CC[NH2+]C1

>  <PUBCHEM_TOTAL_CHARGE>
1

>  <PUBCHEM_XLOGP3_AA>
-0.2

$$$$

  -INDIGO-05252216332D

  8  8  0  0  0  0  0  0  0  0999 V2000
    4.5691   -0.1807    0.0000 O   0  0  0  0  0  0  0  0  0  0  0  0
    3.6180    0.1284    0.0000 C   0  0  0  0  0  0  0  0  0  0  0  0
    3.3090    1.0794    0.0000 N   0  0  0  0  0  0  0  0  0  0  0  0
    2.3090    1.0794    0.0000 C   0  0  0  0  0  0  0  0  0  0  0  0
    1.9446    1.5810    0.0000 H   0  0  0  0  0  0  0  0  0  0  0  0
    2.0000    0.1284    0.0000 N   0  0  0  0  0  0  0  0  0  0  0  0
    2.8090   -0.4594    0.0000 N   0  0  0  0  0  0  0  0  0  0  0  0
    2.8090   -1.0794    0.0000 H   0  0  0  0  0  0  0  0  0  0  0  0
  1  2  1  0  0  0  0
  2  3  2  0  0  0  0
  3  4  1  0  0  0  0
  4  5  1  0  0  0  0
  4  6  2  0  0  0  0
  6  7  1  0  0  0  0
  7  2  1  0  0  0  0
  7  8  1  0  0  0  0
M  CHG  1   1  -1
M  END
>  <PUBCHEM_ATOM_DEF_STEREO_COUNT>
0

>  <PUBCHEM_ATOM_UDEF_STEREO_COUNT>
0

>  <PUBCHEM_BONDANNOTATIONS>
2  4  8
2  5  8
3  5  8
3  6  8
4  6  8

>  <PUBCHEM_BOND_DEF_STEREO_COUNT>
0

>  <PUBCHEM_BOND_UDEF_STEREO_COUNT>
0

>  <PUBCHEM_CACTVS_COMPLEXITY>
48.1

>  <PUBCHEM_CACTVS_HBOND_ACCEPTOR>
3

>  <PUBCHEM_CACTVS_HBOND_DONOR>
1

>  <PUBCHEM_CACTVS_ROTATABLE_BOND>
0

>  <PUBCHEM_CACTVS_SUBSKEYS>
AAADcQBDIAAAAAAAAAAAAAAAAAAAAWAAAAAAAAAAAAAAAAABgAAAFgAYAAAAAAAAAAQFEAZrEAAiAAABJAAQAAuQgIAFYAAIAAGACAAAAAAAAAAAAAAAAAAAAAAAAAAAAAAAAAAAAAAAAAAAAAAAAAAAAA==

>  <PUBCHEM_CACTVS_TAUTO_COUNT>
-1

>  <PUBCHEM_CACTVS_TPSA>
64.6

>  <PUBCHEM_COMPONENT_COUNT>
1

>  <PUBCHEM_COMPOUND_CANONICALIZED>
1

>  <PUBCHEM_COMPOUND_CID>
26386663

>  <PUBCHEM_COORDINATE_TYPE>
1
5
255

>  <PUBCHEM_EXACT_MASS>
84.019786696

>  <PUBCHEM_HEAVY_ATOM_COUNT>
6

>  <PUBCHEM_ISOTOPIC_ATOM_COUNT>
0

>  <PUBCHEM_IUPAC_CAS_NAME>
1H-1,2,4-triazol-5-olate

>  <PUBCHEM_IUPAC_INCHI>
InChI=1S/C2H3N3O/c6-2-3-1-4-5-2/h1H,(H2,3,4,5,6)/p-1

>  <PUBCHEM_IUPAC_INCHIKEY>
LZTSCEYDCZBRCJ-UHFFFAOYSA-M

>  <PUBCHEM_IUPAC_NAME>
1H-1,2,4-triazol-5-olate

>  <PUBCHEM_IUPAC_NAME_MARKUP>
1<I>H</I>-1,2,4-triazol-5-olate

>  <PUBCHEM_IUPAC_OPENEYE_NAME>
1H-1,2,4-triazol-5-olate

>  <PUBCHEM_IUPAC_SYSTEMATIC_NAME>
1H-1,2,4-triazol-5-olate

>  <PUBCHEM_IUPAC_TRADITIONAL_NAME>
1H-1,2,4-triazol-5-olate

>  <PUBCHEM_MOLECULAR_FORMULA>
C2H2N3O-

>  <PUBCHEM_MOLECULAR_WEIGHT>
84.06

>  <PUBCHEM_MONOISOTOPIC_WEIGHT>
84.019786696

>  <PUBCHEM_OPENEYE_CAN_SMILES>
C1=NNC(=N1)[O-]

>  <PUBCHEM_OPENEYE_ISO_SMILES>
C1=NNC(=N1)[O-]

>  <PUBCHEM_TOTAL_CHARGE>
-1

>  <PUBCHEM_XLOGP3_AA>
0.6

$$$$

  -INDIGO-05252216332D

 10  9  0  0  0  0  0  0  0  0999 V2000
    2.0000    0.7315    0.0000 Cl  0  0  0  0  0  0  0  0  0  0  0  0
    2.8660    0.2315    0.0000 C   0  0  0  0  0  0  0  0  0  0  0  0
    3.7320    0.7315    0.0000 C   0  0  0  0  0  0  0  0  0  0  0  0
    3.3335    1.2065    0.0000 H   0  0  0  0  0  0  0  0  0  0  0  0
    4.1306    1.2065    0.0000 H   0  0  0  0  0  0  0  0  0  0  0  0
    4.5981    0.2315    0.0000 N   0  0  0  0  0  0  0  0  0  0  0  0
    4.2881   -0.3054    0.0000 H   0  0  0  0  0  0  0  0  0  0  0  0
    4.9081    0.7685    0.0000 H   0  0  0  0  0  0  0  0  0  0  0  0
    5.1350   -0.0785    0.0000 H   0  0  0  0  0  0  0  0  0  0  0  0
    2.8660   -0.7685    0.0000 O   0  0  0  0  0  0  0  0  0  0  0  0
  1  2  1  0  0  0  0
  2  3  1  0  0  0  0
  3  4  1  0  0  0  0
  3  5  1  0  0  0  0
  3  6  1  0  0  0  0
  6  7  1  0  0  0  0
  6  8  1  0  0  0  0
  6  9  1  0  0  0  0
  2 10  2  0  0  0  0
M  CHG  1   6   1
M  END
>  <PUBCHEM_ATOM_DEF_STEREO_COUNT>
0

>  <PUBCHEM_ATOM_UDEF_STEREO_COUNT>
0

>  <PUBCHEM_BOND_DEF_STEREO_COUNT>
0

>  <PUBCHEM_BOND_UDEF_STEREO_COUNT>
0

>  <PUBCHEM_CACTVS_COMPLEXITY>
44.9

>  <PUBCHEM_CACTVS_HBOND_ACCEPTOR>
1

>  <PUBCHEM_CACTVS_HBOND_DONOR>
1

>  <PUBCHEM_CACTVS_ROTATABLE_BOND>
1

>  <PUBCHEM_CACTVS_SUBSKEYS>
AAADcYBCIAAEAAAAAAAAAAAAAAAAAAAAAAAAAAAAAAAAAAAAAAAAHgIQAAAAAALBgAQAAABAAAAIAEAYAAAAAAAAAAAAAICAAAAAAAAAAAAAAAAAAAAAAAAAAAAAAAAAAAAAAAAAAAAAAAAAAAAAAAAAAA==

>  <PUBCHEM_CACTVS_TAUTO_COUNT>
-1

>  <PUBCHEM_CACTVS_TPSA>
44.7

>  <PUBCHEM_COMPONENT_COUNT>
1

>  <PUBCHEM_COMPOUND_CANONICALIZED>
1

>  <PUBCHEM_COMPOUND_CID>
26496629

>  <PUBCHEM_COORDINATE_TYPE>
1
5
255

>  <PUBCHEM_EXACT_MASS>
94.0059665

>  <PUBCHEM_HEAVY_ATOM_COUNT>
5

>  <PUBCHEM_ISOTOPIC_ATOM_COUNT>
0

>  <PUBCHEM_IUPAC_CAS_NAME>
(2-chloro-2-oxoethyl)ammonium

>  <PUBCHEM_IUPAC_INCHI>
InChI=1S/C2H4ClNO/c3-2(5)1-4/h1,4H2/p+1

>  <PUBCHEM_IUPAC_INCHIKEY>
WCBVOPMSONYWEB-UHFFFAOYSA-O

>  <PUBCHEM_IUPAC_NAME>
(2-chloro-2-oxoethyl)azanium

>  <PUBCHEM_IUPAC_NAME_MARKUP>
(2-chloro-2-oxoethyl)azanium

>  <PUBCHEM_IUPAC_OPENEYE_NAME>
(2-chloro-2-oxo-ethyl)ammonium

>  <PUBCHEM_IUPAC_SYSTEMATIC_NAME>
(2-chloranyl-2-oxidanylidene-ethyl)azanium

>  <PUBCHEM_IUPAC_TRADITIONAL_NAME>
(2-chloro-2-keto-ethyl)ammonium

>  <PUBCHEM_MOLECULAR_FORMULA>
C2H5ClNO+

>  <PUBCHEM_MOLECULAR_WEIGHT>
94.52

>  <PUBCHEM_MONOISOTOPIC_WEIGHT>
94.0059665

>  <PUBCHEM_OPENEYE_CAN_SMILES>
C(C(=O)Cl)[NH3+]

>  <PUBCHEM_OPENEYE_ISO_SMILES>
C(C(=O)Cl)[NH3+]

>  <PUBCHEM_TOTAL_CHARGE>
1

>  <PUBCHEM_XLOGP3_AA>
-0.1

$$$$
